/*---------------------------------------------------------------------------*\
  =========                 |
  \\      /  F ield         | OpenFOAM: The Open Source CFD Toolbox
   \\    /   O peration     | Website:  https://openfoam.org
    \\  /    A nd           | Version:  dev
     \\/     M anipulation  |
\*---------------------------------------------------------------------------*/
Build  : dev-7cd43ea5f827
Exec   : blockMesh
Date   : Dec 24 2019
Time   : 23:31:00
Host   : "chengpeng-zhao"
PID    : 32533
I/O    : uncollated
Case   : /opt/OpenFOAM/zcp-dev/run/turbine_opt/turbineRegionMesh
nProcs : 1
sigFpe : Enabling floating point exception trapping (FOAM_SIGFPE).
fileModificationChecking : Monitoring run-time modified files using timeStampMaster (fileModificationSkew 10)
allowSystemOperations : Allowing user-supplied system call operations

// * * * * * * * * * * * * * * * * * * * * * * * * * * * * * * * * * * * * * //
Create time

Creating block mesh from
    "/opt/OpenFOAM/zcp-dev/run/turbine_opt/turbineRegionMesh/system/blockMeshDict"
Creating block edges
No non-planar block faces defined
Creating topology blocks
Creating topology patches

Creating block mesh topology
--> FOAM Warning : 
    From function Foam::polyMesh::polyMesh(const Foam::IOobject&, Foam::pointField&&, const cellShapeList&, const faceListList&, const wordList&, const Foam::PtrList<Foam::dictionary>&, const Foam::word&, const Foam::word&, bool)
    in file meshes/polyMesh/polyMeshFromShapeMesh.C at line 873
    Found 58 undefined faces in mesh; adding to default patch.

Check topology

	Basic statistics
		Number of internal faces : 46
		Number of boundary faces : 82
		Number of defined boundary faces : 82
		Number of undefined boundary faces : 0
	Checking patch -> block consistency

Creating block offsets
Creating merge list ..

Creating polyMesh from blockMesh
Creating patches
Creating cells
Creating points with scale 0.01
    Block 0 cell size :
        i : 0.0001154793507 .. 0.0001154793507 0.0001142274471 .. 0.0001145407965 0.0001154793507 .. 0.0001154793507 0.0001142274471 .. 0.0001145407965 
        j : 0.0003458005079 .. 3.458005079e-05 0.0003438053041 .. 3.438053041e-05 0.0003458005079 .. 3.458005079e-05 0.0003438053041 .. 3.438053041e-05 
        k : 0.001
    Block 1 cell size :
        i : 9.306008079e-05 .. 9.305410563e-05 9.310781334e-05 .. 9.31156439e-05 9.306008079e-05 .. 9.305410563e-05 9.310781334e-05 .. 9.31156439e-05 
        j : 1.66839878e-05 .. 0.000166839878 1.672481177e-05 .. 0.0001672481177 1.66839878e-05 .. 0.000166839878 1.672481177e-05 .. 0.0001672481177 
        k : 0.001
    Block 2 cell size :
        i : 9.956290333e-05 .. 9.956290333e-05 0.0001014557524 .. 0.0001014382027 9.956290333e-05 .. 9.956290333e-05 0.0001014557524 .. 0.0001014382027 
        j : 0.0002868626282 .. 2.868626282e-05 0.000285949316 .. 2.85949316e-05 0.0002868626282 .. 2.868626282e-05 0.000285949316 .. 2.85949316e-05 
        k : 0.001
    Block 3 cell size :
        i : 0.0001739139076 .. 0.0001739139076 0.000174055764 .. 0.0001740545993 0.0001739139076 .. 0.0001739139076 0.000174055764 .. 0.0001740545993 
        j : 2.070061044e-05 .. 0.0002070061044 2.078314864e-05 .. 0.0002078314864 2.070061044e-05 .. 0.0002070061044 2.078314864e-05 .. 0.0002078314864 
        k : 0.001
    Block 4 cell size :
        i : 0.0001154793507 .. 0.0001154793507 0.0001142274471 .. 0.0001145407965 0.0001154793507 .. 0.0001154793507 0.0001142274471 .. 0.0001145407965 
        j : 0.0003458005079 .. 3.458005079e-05 0.0003438053041 .. 3.438053041e-05 0.0003458005079 .. 3.458005079e-05 0.0003438053041 .. 3.438053041e-05 
        k : 0.001
    Block 5 cell size :
        i : 9.306008079e-05 .. 9.305410563e-05 9.310781334e-05 .. 9.31156439e-05 9.306008079e-05 .. 9.305410563e-05 9.310781334e-05 .. 9.31156439e-05 
        j : 1.66839878e-05 .. 0.000166839878 1.672481177e-05 .. 0.0001672481177 1.66839878e-05 .. 0.000166839878 1.672481177e-05 .. 0.0001672481177 
        k : 0.001
    Block 6 cell size :
        i : 9.956290333e-05 .. 9.956290333e-05 0.0001014557524 .. 0.0001014382027 9.956290333e-05 .. 9.956290333e-05 0.0001014557524 .. 0.0001014382027 
        j : 0.0002868626282 .. 2.868626282e-05 0.000285949316 .. 2.85949316e-05 0.0002868626282 .. 2.868626282e-05 0.000285949316 .. 2.85949316e-05 
        k : 0.001
    Block 7 cell size :
        i : 0.0001739139076 .. 0.0001739139076 0.000174055764 .. 0.0001740545993 0.0001739139076 .. 0.0001739139076 0.000174055764 .. 0.0001740545993 
        j : 2.070061044e-05 .. 0.0002070061044 2.078314864e-05 .. 0.0002078314864 2.070061044e-05 .. 0.0002070061044 2.078314864e-05 .. 0.0002078314864 
        k : 0.001
    Block 8 cell size :
        i : 0.0001154793507 .. 0.0001154793507 0.0001142274471 .. 0.0001145407965 0.0001154793507 .. 0.0001154793507 0.0001142274471 .. 0.0001145407965 
        j : 0.0003458005079 .. 3.458005079e-05 0.0003438053041 .. 3.438053041e-05 0.0003458005079 .. 3.458005079e-05 0.0003438053041 .. 3.438053041e-05 
        k : 0.001
    Block 9 cell size :
        i : 9.306008079e-05 .. 9.305410563e-05 9.310781334e-05 .. 9.31156439e-05 9.306008079e-05 .. 9.305410563e-05 9.310781334e-05 .. 9.31156439e-05 
        j : 1.66839878e-05 .. 0.000166839878 1.672481177e-05 .. 0.0001672481177 1.66839878e-05 .. 0.000166839878 1.672481177e-05 .. 0.0001672481177 
        k : 0.001
    Block 10 cell size :
        i : 9.956290333e-05 .. 9.956290333e-05 0.0001014557524 .. 0.0001014382027 9.956290333e-05 .. 9.956290333e-05 0.0001014557524 .. 0.0001014382027 
        j : 0.0002868626282 .. 2.868626282e-05 0.000285949316 .. 2.85949316e-05 0.0002868626282 .. 2.868626282e-05 0.000285949316 .. 2.85949316e-05 
        k : 0.001
    Block 11 cell size :
        i : 0.0001739139076 .. 0.0001739139076 0.000174055764 .. 0.0001740545993 0.0001739139076 .. 0.0001739139076 0.000174055764 .. 0.0001740545993 
        j : 2.070061044e-05 .. 0.0002070061044 2.078314864e-05 .. 0.0002078314864 2.070061044e-05 .. 0.0002070061044 2.078314864e-05 .. 0.0002078314864 
        k : 0.001
    Block 12 cell size :
        i : 8.556266701e-05 .. 8.556266701e-05 8.586347802e-05 .. 8.586347802e-05 8.556266701e-05 .. 8.556266701e-05 8.586347802e-05 .. 8.586347802e-05 
        j : 0.0002509899478 .. 8.366331594e-05 0.0002523067474 .. 8.410224912e-05 0.0002509899478 .. 8.366331594e-05 0.0002523067474 .. 8.410224912e-05 
        k : 0.001
    Block 13 cell size :
        i : 4.409798921e-05 .. 4.409798921e-05 4.478471129e-05 .. 4.535574105e-05 4.409798921e-05 .. 4.409798921e-05 4.478471129e-05 .. 4.535574105e-05 
        j : 0.0002509899478 .. 8.366331594e-05 0.0002512102528 .. 8.373675095e-05 0.0002509899478 .. 8.366331594e-05 0.0002512102528 .. 8.373675095e-05 
        k : 0.001
    Block 14 cell size :
        i : 4.409798921e-05 .. 4.409798921e-05 4.567552618e-05 .. 4.492157375e-05 4.409798921e-05 .. 4.409798921e-05 4.567552618e-05 .. 4.492157375e-05 
        j : 0.0002708030592 .. 9.02676864e-05 0.0002710197112 .. 9.033990372e-05 0.0002708030592 .. 9.02676864e-05 0.0002710197112 .. 9.033990372e-05 
        k : 0.001
    Block 15 cell size :
        i : 8.556266701e-05 .. 8.556266701e-05 8.563118554e-05 .. 8.563118554e-05 8.556266701e-05 .. 8.556266701e-05 8.563118554e-05 .. 8.563118554e-05 
        j : 0.0002655553191 .. 8.851843969e-05 0.0002666294626 .. 8.887648754e-05 0.0002655553191 .. 8.851843969e-05 0.0002666294626 .. 8.887648754e-05 
        k : 0.001
    Block 16 cell size :
        i : 4.409798921e-05 .. 4.409798921e-05 4.492157375e-05 .. 4.567552618e-05 4.409798921e-05 .. 4.409798921e-05 4.492157375e-05 .. 4.567552618e-05 
        j : 0.0002655553191 .. 8.851843969e-05 0.0002655256801 .. 8.850856002e-05 0.0002655553191 .. 8.851843969e-05 0.0002655256801 .. 8.850856002e-05 
        k : 0.001
    Block 17 cell size :
        i : 4.409798921e-05 .. 4.409798921e-05 4.535574105e-05 .. 4.478471129e-05 4.409798921e-05 .. 4.409798921e-05 4.535574105e-05 .. 4.478471129e-05 
        j : 0.0002708030592 .. 9.02676864e-05 0.0002710692285 .. 9.035640951e-05 0.0002708030592 .. 9.02676864e-05 0.0002710692285 .. 9.035640951e-05 
        k : 0.001
    Block 18 cell size :
        i : 0.0001069533338 .. 0.0001069533338 0.0001068618216 .. 0.0001068618216 0.0001069533338 0.0001068618216 .. 0.0001068618216 
        j : 4.409798921e-05 .. 4.409798921e-05 4.407588367e-05 .. 4.407588367e-05 4.409798921e-05 .. 4.409798921e-05 4.407588367e-05 .. 4.407588367e-05 
        k : 0.001
    Block 19 cell size :
        i : 0.0001069533338 .. 0.0001069533338 0.0001068618216 .. 0.0001068618216 0.0001069533338 0.0001068618216 .. 0.0001068618216 
        j : 4.409798921e-05 .. 4.409798921e-05 4.407588367e-05 .. 4.407588367e-05 4.409798921e-05 .. 4.409798921e-05 4.407588367e-05 .. 4.407588367e-05 
        k : 0.001
    Block 20 cell size :
        i : 0.0003458005079 .. 3.458005079e-05 0.0003396176878 .. 3.393800519e-05 0.0003458005079 .. 3.458005079e-05 0.0003396176878 .. 3.393800519e-05 
        j : 0.0002915817873 .. 2.915817873e-05 0.0002856411609 .. 2.868600844e-05 0.0002915817873 .. 2.915817873e-05 0.0002856411609 .. 2.868600844e-05 
        k : 0.001
    Block 21 cell size :
        i : 1.056380885e-05 .. 0.0001056522565 1.054073928e-05 .. 0.0001055790716 1.056380885e-05 .. 0.0001056522565 1.054073928e-05 .. 0.0001055790716 
        j : 1.482179428e-05 .. 0.0001482179428 1.478504175e-05 .. 0.0001478504175 1.482179428e-05 .. 0.0001482179428 1.478504175e-05 .. 0.0001478504175 
        k : 0.001
    Block 22 cell size :
        i : 0.0001467811752 .. 1.467812318e-05 0.000146564472 .. 1.465665818e-05 0.0001467811752 .. 1.467812318e-05 0.000146564472 .. 1.465665818e-05 
        j : 1.811811685e-05 .. 0.0001811811685 1.797226535e-05 .. 0.0001797226535 1.811811685e-05 .. 0.0001811811685 1.797226535e-05 .. 0.0001797226535 
        k : 0.001
    Block 23 cell size :
        i : 0.0003458005079 .. 3.458005079e-05 0.0003396176878 .. 3.393800519e-05 0.0003458005079 .. 3.458005079e-05 0.0003396176878 .. 3.393800519e-05 
        j : 0.0002915817873 .. 2.915817873e-05 0.0002856411609 .. 2.868600844e-05 0.0002915817873 .. 2.915817873e-05 0.0002856411609 .. 2.868600844e-05 
        k : 0.001
    Block 24 cell size :
        i : 1.056380885e-05 .. 0.0001056522565 1.054073928e-05 .. 0.0001055790716 1.056380885e-05 .. 0.0001056522565 1.054073928e-05 .. 0.0001055790716 
        j : 1.482179428e-05 .. 0.0001482179428 1.478504175e-05 .. 0.0001478504175 1.482179428e-05 .. 0.0001482179428 1.478504175e-05 .. 0.0001478504175 
        k : 0.001
    Block 25 cell size :
        i : 0.0001467811752 .. 1.467812318e-05 0.000146564472 .. 1.465665818e-05 0.0001467811752 .. 1.467812318e-05 0.000146564472 .. 1.465665818e-05 
        j : 1.811811685e-05 .. 0.0001811811685 1.797226535e-05 .. 0.0001797226535 1.811811685e-05 .. 0.0001811811685 1.797226535e-05 .. 0.0001797226535 
        k : 0.001
    Block 26 cell size :
        i : 0.0003458005079 .. 3.458005079e-05 0.0003396176878 .. 3.393800519e-05 0.0003458005079 .. 3.458005079e-05 0.0003396176878 .. 3.393800519e-05 
        j : 0.0002915817873 .. 2.915817873e-05 0.0002856411609 .. 2.868600844e-05 0.0002915817873 .. 2.915817873e-05 0.0002856411609 .. 2.868600844e-05 
        k : 0.001
    Block 27 cell size :
        i : 1.056380885e-05 .. 0.0001056522565 1.054073928e-05 .. 0.0001055790716 1.056380885e-05 .. 0.0001056522565 1.054073928e-05 .. 0.0001055790716 
        j : 1.482179428e-05 .. 0.0001482179428 1.478504175e-05 .. 0.0001478504175 1.482179428e-05 .. 0.0001482179428 1.478504175e-05 .. 0.0001478504175 
        k : 0.001
    Block 28 cell size :
        i : 0.0001467811752 .. 1.467812318e-05 0.000146564472 .. 1.465665818e-05 0.0001467811752 .. 1.467812318e-05 0.000146564472 .. 1.465665818e-05 
        j : 1.811811685e-05 .. 0.0001811811685 1.797226535e-05 .. 0.0001797226535 1.811811685e-05 .. 0.0001811811685 1.797226535e-05 .. 0.0001797226535 
        k : 0.001

Adding cell zones
    0	b0
    1	b1
    2	b2
    3	b3
    4	b4
    5	b5
    6	b6
    7	b7
    8	b8
    9	b9
    10	b10
    11	b11
    12	b12
    13	b13
    14	b14
    15	b15
    16	b16
    17	b17
    18	b18
    19	b19
    20	b5a
    21	b5b
    22	b5c
    23	b11a
    24	b11b
    25	b11c
    26	b17a
    27	b17b
    28	b17c

Writing polyMesh
----------------
Mesh Information
----------------
  boundingBox: (-0.03999993164 -0.03999999779 0) (0.03999999915 0.0399995065 0.001)
  nPoints: 367236
  nCells: 182600
  nFaces: 731420
  nInternalFaces: 364180
----------------
Patches
----------------
  patch 0 (start: 364180 size: 70) name: blade1-l2
  patch 1 (start: 364250 size: 70) name: blade1-h2
  patch 2 (start: 364320 size: 100) name: blade1-l1
  patch 3 (start: 364420 size: 100) name: blade1-h1
  patch 4 (start: 364520 size: 70) name: blade2-l2
  patch 5 (start: 364590 size: 70) name: blade2-h2
  patch 6 (start: 364660 size: 100) name: blade2-l1
  patch 7 (start: 364760 size: 100) name: blade2-h1
  patch 8 (start: 364860 size: 70) name: blade3-l2
  patch 9 (start: 364930 size: 70) name: blade3-h2
  patch 10 (start: 365000 size: 100) name: blade3-l1
  patch 11 (start: 365100 size: 100) name: blade3-h1
  patch 12 (start: 365200 size: 100) name: AMIin-blade1-1
  patch 13 (start: 365300 size: 100) name: AMIin-blade1-2
  patch 14 (start: 365400 size: 70) name: AMIin-blade1-3
  patch 15 (start: 365470 size: 70) name: AMIin-blade1-4
  patch 16 (start: 365540 size: 100) name: AMIin-blade2-1
  patch 17 (start: 365640 size: 100) name: AMIin-blade2-2
  patch 18 (start: 365740 size: 70) name: AMIin-blade2-3
  patch 19 (start: 365810 size: 70) name: AMIin-blade2-4
  patch 20 (start: 365880 size: 100) name: AMIin-blade3-1
  patch 21 (start: 365980 size: 100) name: AMIin-blade3-2
  patch 22 (start: 366080 size: 70) name: AMIin-blade3-3
  patch 23 (start: 366150 size: 70) name: AMIin-blade3-4
  patch 24 (start: 366220 size: 365200) name: defaultFaces

End

